Circuit: * Y:\Documents\LTspiceXVII\willian\Draft2.asc

.OP point found by inspection.
.step dt=-0.05
.step dt=-0.049
.step dt=-0.048
.step dt=-0.047
.step dt=-0.046
.step dt=-0.045
.step dt=-0.044
.step dt=-0.043
.step dt=-0.042
.step dt=-0.041
.step dt=-0.04
.step dt=-0.039
.step dt=-0.038
.step dt=-0.037
.step dt=-0.036
.step dt=-0.035
.step dt=-0.034
.step dt=-0.033
.step dt=-0.032
.step dt=-0.031
.step dt=-0.03
.step dt=-0.029
.step dt=-0.028
.step dt=-0.027
.step dt=-0.026
.step dt=-0.025
.step dt=-0.024
.step dt=-0.023
.step dt=-0.022
.step dt=-0.021
.step dt=-0.02
.step dt=-0.019
.step dt=-0.018
.step dt=-0.017
.step dt=-0.016
.step dt=-0.015
.step dt=-0.014
.step dt=-0.013
.step dt=-0.012
.step dt=-0.011
.step dt=-0.01
.step dt=-0.009
.step dt=-0.008
.step dt=-0.007
.step dt=-0.006
.step dt=-0.005
.step dt=-0.004
.step dt=-0.003
.step dt=-0.002
.step dt=-0.001
.step dt=3.46945e-017
.step dt=0.001
.step dt=0.002
.step dt=0.003
.step dt=0.004
.step dt=0.005
.step dt=0.006
.step dt=0.007
.step dt=0.008
.step dt=0.009
.step dt=0.01
.step dt=0.011
.step dt=0.012
.step dt=0.013
.step dt=0.014
.step dt=0.015
.step dt=0.016
.step dt=0.017
.step dt=0.018
.step dt=0.019
.step dt=0.02
.step dt=0.021
.step dt=0.022
.step dt=0.023
.step dt=0.024
.step dt=0.025
.step dt=0.026
.step dt=0.027
.step dt=0.028
.step dt=0.029
.step dt=0.03
.step dt=0.031
.step dt=0.032
.step dt=0.033
.step dt=0.034
.step dt=0.035
.step dt=0.036
.step dt=0.037
.step dt=0.038
.step dt=0.039
.step dt=0.04
.step dt=0.041
.step dt=0.042
.step dt=0.043
.step dt=0.044
.step dt=0.045
.step dt=0.046
.step dt=0.047
.step dt=0.048
.step dt=0.049
.step dt=0.05


Measurement: i(r1)
  step	(null)=(null)
     1	0.206
     2	0.206
     3	0.206
     4	0.206
     5	0.206
     6	0.206
     7	0.206
     8	0.206
     9	0.206
    10	0.206
    11	0.206
    12	0.206
    13	0.206
    14	0.206
    15	0.206
    16	0.206
    17	0.206
    18	0.206
    19	0.206
    20	0.206
    21	0.206
    22	0.206
    23	0.206
    24	0.206
    25	0.206
    26	0.206
    27	0.206
    28	0.206
    29	0.206
    30	0.206
    31	0.206
    32	0.206
    33	0.206
    34	0.206
    35	0.206
    36	0.206
    37	0.206
    38	0.206
    39	0.206
    40	0.206
    41	0.206
    42	0.206
    43	0.206
    44	0.206
    45	0.206
    46	0.206
    47	0.206
    48	0.206
    49	0.206
    50	0.206
    51	0.206
    52	0.206
    53	0.206
    54	0.206
    55	0.206
    56	0.206
    57	0.206
    58	0.206
    59	0.206
    60	0.206
    61	0.206
    62	0.206
    63	0.206
    64	0.206
    65	0.206
    66	0.206
    67	0.206
    68	0.206
    69	0.206
    70	0.206
    71	0.206
    72	0.206
    73	0.206
    74	0.206
    75	0.206
    76	0.206
    77	0.206
    78	0.206
    79	0.206
    80	0.206
    81	0.206
    82	0.206
    83	0.206
    84	0.206
    85	0.206
    86	0.206
    87	0.206
    88	0.206
    89	0.206
    90	0.206
    91	0.206
    92	0.206
    93	0.206
    94	0.206
    95	0.206
    96	0.206
    97	0.206
    98	0.206
    99	0.206
   100	0.206
   101	0.206


Date: Fri Sep 17 12:59:49 2021
Total elapsed time: 2.062 seconds.

tnom = 27
temp = 27
method = modified trap
totiter = 2800
traniter = 2800
tranpoints = 1401
accept = 1321
rejected = 80
matrix size = 10
fillins = 0
solver = Normal
Matrix Compiler1: 166 bytes object code size  0.4/0.3/[0.3]
Matrix Compiler2: 582 bytes object code size  0.3/0.4/[0.3]

