Circuit: * C:\users\crossover\My Documents\LTspiceXVII\willian\exp-1_0.asc

WARNING: Node NC_01 is floating and connected to current source G:U1:X.  It's .op solution is defined solely by a .ic statement.

Direct Newton iteration for .op point succeeded.

Date: Thu Sep 23 10:06:37 2021
Total elapsed time: 0.065 seconds.

tnom = 27
temp = 27
method = modified trap
totiter = 2092
traniter = 2089
tranpoints = 1045
accept = 1045
rejected = 0
matrix size = 3
fillins = 0
solver = Normal
Matrix Compiler1: 68 bytes object code size  0.3/0.3/[0.3]
Matrix Compiler2: 149 bytes object code size  0.4/0.3/[0.3]

