Circuit: * Y:\Documents\LTspiceXVII\willian\exp-1_2.asc

WARNING: Node NC_01 is floating and connected to current source G:U1:X.  It's .op solution is defined solely by a .ic statement.

Direct Newton iteration for .op point succeeded.
.step dt=-0.05
.step dt=-0.049
.step dt=-0.048
.step dt=-0.047
.step dt=-0.046
.step dt=-0.045
.step dt=-0.044
.step dt=-0.043
.step dt=-0.042
.step dt=-0.041
.step dt=-0.04
.step dt=-0.039
.step dt=-0.038
.step dt=-0.037
.step dt=-0.036
.step dt=-0.035
.step dt=-0.034
.step dt=-0.033
.step dt=-0.032
.step dt=-0.031
.step dt=-0.03
.step dt=-0.029
.step dt=-0.028
.step dt=-0.027
.step dt=-0.026
.step dt=-0.025
.step dt=-0.024
.step dt=-0.023
.step dt=-0.022
.step dt=-0.021
.step dt=-0.02
.step dt=-0.019
.step dt=-0.018
.step dt=-0.017
.step dt=-0.016
.step dt=-0.015
.step dt=-0.014
.step dt=-0.013
.step dt=-0.012
.step dt=-0.011
.step dt=-0.01
.step dt=-0.009
.step dt=-0.008
.step dt=-0.007
.step dt=-0.006
.step dt=-0.005
.step dt=-0.004
.step dt=-0.003
.step dt=-0.002
.step dt=-0.001
.step dt=3.46945e-017
.step dt=0.001
.step dt=0.002
.step dt=0.003
.step dt=0.004
.step dt=0.005
.step dt=0.006
.step dt=0.007
.step dt=0.008
.step dt=0.009
.step dt=0.01
.step dt=0.011
.step dt=0.012
.step dt=0.013
.step dt=0.014
.step dt=0.015
.step dt=0.016
.step dt=0.017
.step dt=0.018
.step dt=0.019
.step dt=0.02
.step dt=0.021
.step dt=0.022
.step dt=0.023
.step dt=0.024
.step dt=0.025
.step dt=0.026
.step dt=0.027
.step dt=0.028
.step dt=0.029
.step dt=0.03
.step dt=0.031
.step dt=0.032
.step dt=0.033
.step dt=0.034
.step dt=0.035
.step dt=0.036
.step dt=0.037
.step dt=0.038
.step dt=0.039
.step dt=0.04
.step dt=0.041
.step dt=0.042
.step dt=0.043
.step dt=0.044
.step dt=0.045
.step dt=0.046
.step dt=0.047
.step dt=0.048
.step dt=0.049
.step dt=0.05


Measurement: res
  step	ix(u1:te)	at
     1	1.011e-005	0.206
     2	1.01099e-005	0.206
     3	1.011e-005	0.206
     4	1.011e-005	0.206
     5	1.01099e-005	0.206
     6	1.011e-005	0.206
     7	1.011e-005	0.206
     8	1.011e-005	0.206
     9	1.011e-005	0.206
    10	1.01101e-005	0.206
    11	1.01101e-005	0.206
    12	1.01101e-005	0.206
    13	1.01101e-005	0.206
    14	1.01101e-005	0.206
    15	1.01102e-005	0.206
    16	1.01102e-005	0.206
    17	1.01102e-005	0.206
    18	1.01103e-005	0.206
    19	1.01103e-005	0.206
    20	1.01103e-005	0.206
    21	1.01104e-005	0.206
    22	1.01105e-005	0.206
    23	1.01105e-005	0.206
    24	1.01105e-005	0.206
    25	1.01106e-005	0.206
    26	1.01106e-005	0.206
    27	1.01105e-005	0.206
    28	1.01106e-005	0.206
    29	1.01105e-005	0.206
    30	1.01105e-005	0.206
    31	1.01105e-005	0.206
    32	1.01105e-005	0.206
    33	1.01105e-005	0.206
    34	1.01104e-005	0.206
    35	1.01104e-005	0.206
    36	1.01103e-005	0.206
    37	1.01103e-005	0.206
    38	1.01103e-005	0.206
    39	1.01102e-005	0.206
    40	1.01101e-005	0.206
    41	1.01101e-005	0.206
    42	1.01101e-005	0.206
    43	1.011e-005	0.206
    44	1.011e-005	0.206
    45	1.01099e-005	0.206
    46	1.01099e-005	0.206
    47	1.01099e-005	0.206
    48	1.01098e-005	0.206
    49	1.01098e-005	0.206
    50	1.01098e-005	0.206
    51	1.01098e-005	0.206
    52	1.01097e-005	0.206
    53	1.01098e-005	0.206
    54	1.01097e-005	0.206
    55	1.01096e-005	0.206
    56	1.01096e-005	0.206
    57	1.01094e-005	0.206
    58	1.01094e-005	0.206
    59	1.01093e-005	0.206
    60	1.01092e-005	0.206
    61	1.01092e-005	0.206
    62	1.01091e-005	0.206
    63	1.0109e-005	0.206
    64	1.01089e-005	0.206
    65	1.01088e-005	0.206
    66	1.01087e-005	0.206
    67	1.01087e-005	0.206
    68	1.01086e-005	0.206
    69	1.01085e-005	0.206
    70	1.01085e-005	0.206
    71	1.01085e-005	0.206
    72	1.01084e-005	0.206
    73	1.01084e-005	0.206
    74	1.01083e-005	0.206
    75	1.01084e-005	0.206
    76	1.01083e-005	0.206
    77	1.01083e-005	0.206
    78	1.01084e-005	0.206
    79	1.01083e-005	0.206
    80	1.01084e-005	0.206
    81	1.01084e-005	0.206
    82	1.01084e-005	0.206
    83	1.01086e-005	0.206
    84	1.01086e-005	0.206
    85	1.01087e-005	0.206
    86	1.01087e-005	0.206
    87	1.01087e-005	0.206
    88	1.01088e-005	0.206
    89	1.01088e-005	0.206
    90	1.01088e-005	0.206
    91	1.01088e-005	0.206
    92	1.01089e-005	0.206
    93	1.01088e-005	0.206
    94	1.01089e-005	0.206
    95	1.01089e-005	0.206
    96	1.01089e-005	0.206
    97	1.0109e-005	0.206
    98	1.0109e-005	0.206
    99	1.0109e-005	0.206
   100	1.01089e-005	0.206
   101	1.0109e-005	0.206


Date: Thu Sep 23 12:04:40 2021
Total elapsed time: 2.095 seconds.

tnom = 27
temp = 27
method = modified trap
totiter = 2622
traniter = 2619
tranpoints = 1310
accept = 1256
rejected = 54
matrix size = 11
fillins = 0
solver = Normal
Matrix Compiler1: 180 bytes object code size  0.5/0.4/[0.4]
Matrix Compiler2: 661 bytes object code size  0.4/0.5/[0.4]

