Circuit: * Y:\Documents\LTspiceXVII\willian\exp-1_3.asc

WARNING: Node NC_01 is floating and connected to current source G:U1:X.  It's .op solution is defined solely by a .ic statement.

.OP point found by inspection.

Date: Thu Sep 23 16:24:27 2021
Total elapsed time: 0.043 seconds.

tnom = 27
temp = 27
method = modified trap
totiter = 2231
traniter = 2231
tranpoints = 1059
accept = 1056
rejected = 3
matrix size = 3
fillins = 0
solver = Normal
Matrix Compiler1: 86 bytes object code size  1.0/1.5/[0.3]
Matrix Compiler2: 163 bytes object code size  0.3/0.3/[0.3]

